                                  MODFLOW-2005     
      U.S. GEOLOGICAL SURVEY MODULAR FINITE-DIFFERENCE GROUND-WATER FLOW MODEL
                            VERSION 1.12.00 2/3/2017

 LIST FILE: etsdrt.lst
                         UNIT   12

 OPENING etsdrt.dis
 FILE TYPE:DIS   UNIT   21   STATUS:OLD    
 FORMAT:FORMATTED              ACCESS:SEQUENTIAL          

 OPENING etsdrt.bas
 FILE TYPE:BAS6   UNIT   31   STATUS:OLD    
 FORMAT:FORMATTED              ACCESS:SEQUENTIAL          

 OPENING etsdrt.oc
 FILE TYPE:OC   UNIT   50   STATUS:OLD    
 FORMAT:FORMATTED              ACCESS:SEQUENTIAL          

 OPENING etsdrt.lpf
 FILE TYPE:LPF   UNIT   33   STATUS:OLD    
 FORMAT:FORMATTED              ACCESS:SEQUENTIAL          

 OPENING etsdrt.drt
 FILE TYPE:DRT   UNIT   34   STATUS:OLD    
 FORMAT:FORMATTED              ACCESS:SEQUENTIAL          

 OPENING etsdrt.rch
 FILE TYPE:RCH   UNIT   36   STATUS:OLD    
 FORMAT:FORMATTED              ACCESS:SEQUENTIAL          

 OPENING etsdrt.pcg
 FILE TYPE:PCG   UNIT   39   STATUS:OLD    
 FORMAT:FORMATTED              ACCESS:SEQUENTIAL          

 OPENING etsdrt.hds
 FILE TYPE:DATA(BINARY)   UNIT   51   STATUS:REPLACE
 FORMAT:UNFORMATTED            ACCESS:STREAM              

 OPENING etsdrt.cbc
 FILE TYPE:DATA(BINARY)   UNIT   53   STATUS:REPLACE
 FORMAT:UNFORMATTED            ACCESS:STREAM              

 BAS -- BASIC PACKAGE, VERSION 7, 5/2/2005 INPUT READ FROM UNIT   31
 
 MODFLOW was compiled using mixed precision
 Precision of REAL variables:           6
 Precision of DOUBLE PRECISION variables:          15

 DISCRETIZATION INPUT DATA READ FROM UNIT   21
 # DIS file for ets1, drt1, and etsdrt test cases.  Units: Days, Feet
    1 LAYERS        11 ROWS        11 COLUMNS
    1 STRESS PERIOD(S) IN SIMULATION
 MODEL TIME UNIT IS DAYS
 MODEL LENGTH UNIT IS FEET
  Confining bed flag for each layer:
   0

                     DELR =   100.000    

                     DELC =   100.000    

 TOP ELEVATION OF LAYER 1 =   100.000    

   MODEL LAYER BOTTOM EL. =   0.00000     FOR LAYER   1


 STRESS PERIOD     LENGTH       TIME STEPS     MULTIPLIER FOR DELT    SS FLAG
 ----------------------------------------------------------------------------
        1         0.000000          1                    1.000         SS

 STEADY-STATE SIMULATION



 
 # BAS file for ets1, drt1, and etsdrt test cases                                
 THE FREE FORMAT OPTION HAS BEEN SELECTED



                     BOUNDARY ARRAY FOR LAYER   1
 READING ON UNIT   31 WITH FORMAT: (FREE)              

 AQUIFER HEAD WILL BE SET TO  -999.00     AT ALL NO-FLOW NODES (IBOUND=0).



                       INITIAL HEAD FOR LAYER   1
 READING ON UNIT   31 WITH FORMAT: (FREE)              
 # OC package for  MODFLOW-2005, generated by Flopy.

 OUTPUT CONTROL IS SPECIFIED ONLY AT TIME STEPS FOR WHICH OUTPUT IS DESIRED
 COMPACT CELL-BY-CELL BUDGET FILES WILL BE WRITTEN
 AUXILIARY DATA WILL BE SAVED IN CELL-BY-CELL BUDGET FILES
 HEAD PRINT FORMAT CODE IS   0    DRAWDOWN PRINT FORMAT CODE IS   0
 HEADS WILL BE SAVED ON UNIT   51    DRAWDOWNS WILL BE SAVED ON UNIT    0

 LPF -- LAYER-PROPERTY FLOW PACKAGE, VERSION 7, 5/2/2005
         INPUT READ FROM UNIT   33
 # LPF package for  MODFLOW-2005, generated by Flopy.
 CELL-BY-CELL FLOWS WILL BE SAVED ON UNIT   53
 HEAD AT CELLS THAT CONVERT TO DRY=   0.0000    
 No named parameters

   LAYER FLAGS:
 LAYER       LAYTYP        LAYAVG         CHANI        LAYVKA        LAYWET
 ---------------------------------------------------------------------------
    1             1             0     1.000E+00             0             0

   INTERPRETATION OF LAYER FLAGS:
                        INTERBLOCK     HORIZONTAL    DATA IN
         LAYER TYPE   TRANSMISSIVITY   ANISOTROPY   ARRAY VKA   WETTABILITY
 LAYER      (LAYTYP)      (LAYAVG)       (CHANI)      (LAYVKA)      (LAYWET)
 ---------------------------------------------------------------------------
    1   CONVERTIBLE      HARMONIC     1.000E+00    VERTICAL K  NON-WETTABLE

 WETTING CAPABILITY IS NOT ACTIVE IN ANY LAYER



              HYD. COND. ALONG ROWS FOR LAYER   1
 READING ON UNIT   33 WITH FORMAT: (11E15.6)           

      VERTICAL HYD. COND. =  1.000000E-02 FOR LAYER   1

 RCH -- RECHARGE PACKAGE, VERSION 7, 5/2/2005 INPUT READ FROM UNIT   36
 # RCH file for etsdrt test case
     1 Named Parameters     
 OPTION 1 -- RECHARGE TO TOP LAYER


     1 Recharge parameters

 PARAMETER NAME:recharge     TYPE:RCH    CLUSTERS:   1
 Parameter value from package file is:   1.00000E-03
                MULTIPLIER ARRAY: none    ZONE ARRAY: all

 DRT7 -- DRAIN RETURN PACKAGE, VERSION 7, 2/28/2006
 INPUT READ FROM UNIT   34
 # DRT file for drt1 and etsdrt test cases
 MAXIMUM OF      1 ACTIVE DRAINS WITH RETURN FLOW AT ONE TIME
     1 Named Parameters         1 List entries
 RETURN FLOW OPTION IS SELECTED


     1 Drain-return parameters

 PARAMETER NAME:DRT-Cond     TYPE:DRT 
 Parameter value from package file is:    2.0000    
   NUMBER OF ENTRIES:      1

 DRAIN NO.  LAYER   ROW   COL     DRAIN EL.  STRESS FACTOR         
 ------------------------------------------------------------------
      1      1      5      8       60.00           1.000    

           ----DRAIN CELL----  --RECIPIENT CELL--   RETURN
 DRAIN NO.  LAYER   ROW   COL   LAYER   ROW   COL    PROP.
      1      1      5      8      1      7      3  0.400000

 PCG -- CONJUGATE-GRADIENT SOLUTION PACKAGE, VERSION 7, 5/2/2005
 # PCG file for ets1, drt1, and etsdrt test cases
 #
 MAXIMUM OF     60 CALLS OF SOLUTION ROUTINE
 MAXIMUM OF      8 INTERNAL ITERATIONS PER CALL TO SOLUTION ROUTINE
 MATRIX PRECONDITIONING TYPE :    1



                                    SOLUTION BY THE CONJUGATE-GRADIENT METHOD
                                   -------------------------------------------
                    MAXIMUM NUMBER OF CALLS TO PCG ROUTINE =       60
                        MAXIMUM ITERATIONS PER CALL TO PCG =        8
                               MATRIX PRECONDITIONING TYPE =        1
        RELAXATION FACTOR (ONLY USED WITH PRECOND. TYPE 1) =    0.10000E+01
 PARAMETER OF POLYNOMIAL PRECOND. = 2 (2) OR IS CALCULATED :        2
                         HEAD CHANGE CRITERION FOR CLOSURE =    0.10000E-03
                     RESIDUAL CHANGE CRITERION FOR CLOSURE =    0.80000E+02
            PCG HEAD AND RESIDUAL CHANGE PRINTOUT INTERVAL =        1
     PRINTING FROM SOLVER IS LIMITED(1) OR SUPPRESSED (>1) =        0
                            STEADY-STATE DAMPING PARAMETER =    0.10000E+01
                               TRANSIENT DAMPING PARAMETER =    0.10000E+01
1
                            STRESS PERIOD NO.    1, LENGTH =   0.000000    
                            -----------------------------------------------

                              NUMBER OF TIME STEPS =     1

                               MULTIPLIER FOR DELT =     1.000

                            INITIAL TIME STEP SIZE =   0.000000    



 RECH array defined by the following parameters:
 Parameter:  recharge

                 RECHARGE =  1.000000E-03

 Parameter:  DRT-Cond
 DRAIN NO.  LAYER   ROW   COL     DRAIN EL.  CONDUCTANCE           
 ------------------------------------------------------------------
      1      1      5      8       60.00           2.000    

           ----DRAIN CELL----  --RECIPIENT CELL--   RETURN
 DRAIN NO.  LAYER   ROW   COL   LAYER   ROW   COL    PROP.
      1      1      5      8      1      7      3  0.400000

      1 DRAIN-RETURN CELLS
 
 SOLVING FOR HEAD 


     7 CALLS TO PCG ROUTINE FOR TIME STEP   1 IN STRESS PERIOD    1
    39 TOTAL ITERATIONS

 MAXIMUM HEAD CHANGE FOR EACH ITERATION (1 INDICATES THE FIRST INNER ITERATION):

    HEAD CHANGE    HEAD CHANGE    HEAD CHANGE    HEAD CHANGE    HEAD CHANGE 
   LAYER,ROW,COL  LAYER,ROW,COL  LAYER,ROW,COL  LAYER,ROW,COL  LAYER,ROW,COL
 ---------------------------------------------------------------------------
  1   38.41      0   9.348      0   1.907      0   1.133      0 -0.2122    
   (  1,  9,  6)  (  1,  1,  7)  (  1, 11,  3)  (  1,  2,  6)  (  1, 11,  4)
  0  0.7561E-01  0 -0.2702E-01  0 -0.5842E-02  1  -6.357      0  -1.981    
   (  1, 11, 10)  (  1, 10,  6)  (  1, 10,  5)  (  1,  9,  6)  (  1,  1,  7)
  0 -0.3653      0 -0.1451      0  0.4891E-01  0  0.1866E-01  0 -0.4416E-02
   (  1, 11,  3)  (  1,  3,  7)  (  1,  1,  3)  (  1,  1,  2)  (  1,  3,  6)
  0  0.1627E-02  1  0.4177      0 -0.9623E-01  0 -0.4858E-01  0 -0.1287E-01
   (  1,  2,  2)  (  1,  2,  5)  (  1,  1,  3)  (  1,  1,  3)  (  1,  1,  3)
  0 -0.3714E-02  0 -0.1784E-02  0 -0.3023E-03  0 -0.1226E-03  1  0.4598E-01
   (  1,  1,  5)  (  1,  2,  2)  (  1,  4,  7)  (  1,  7,  5)  (  1,  7,  3)
  0  0.1215E-01  0  0.3796E-02  0  0.9197E-03  0  0.2774E-03  0  0.9633E-04
   (  1,  1,  5)  (  1,  1,  8)  (  1, 10,  5)  (  1,  2,  2)  (  1,  2,  8)
  1 -0.6315E-02  0 -0.1860E-02  0 -0.3760E-03  0 -0.1199E-03  0  0.4156E-04
   (  1,  8,  5)  (  1,  1,  7)  (  1, 11,  3)  (  1,  3,  7)  (  1,  1,  2)
  1  0.5404E-03  0  0.1415E-03  0 -0.5751E-04  1  0.4473E-04
   (  1,  2,  5)  (  1,  1,  7)  (  1,  1,  3)  (  1,  7,  3)

 MAXIMUM RESIDUAL FOR EACH ITERATION (1 INDICATES THE FIRST INNER ITERATION):

    RESIDUAL       RESIDUAL       RESIDUAL       RESIDUAL       RESIDUAL    
   LAYER,ROW,COL  LAYER,ROW,COL  LAYER,ROW,COL  LAYER,ROW,COL  LAYER,ROW,COL
 ---------------------------------------------------------------------------
  1   33.88      0  -15.40      0   7.813      0  -1.846      0 -0.8150    
   (  1, 11, 10)  (  1,  1, 10)  (  1,  2, 10)  (  1,  2,  9)  (  1, 11, 10)
  0  0.1435      0 -0.6147E-01  0  0.1402E-01  1   7.644      0   2.808    
   (  1,  3,  9)  (  1,  3,  8)  (  1, 11, 10)  (  1, 11,  4)  (  1,  1, 10)
  0  -1.331      0  0.4663      0  0.1324      0 -0.4235E-01  0 -0.1487E-01
   (  1,  2, 10)  (  1, 10,  5)  (  1, 11, 10)  (  1,  2,  2)  (  1,  2,  2)
  0 -0.3494E-02  1 -0.7602      0 -0.2622      0 -0.1103      0 -0.3966E-01
   (  1,  9,  8)  (  1, 11,  4)  (  1, 11,  4)  (  1, 10,  6)  (  1, 10,  5)
  0  0.1542E-01  0  0.2720E-02  0  0.9478E-03  0  0.2618E-03  1 -0.4728E-01
   (  1,  2,  2)  (  1, 10,  6)  (  1,  9,  8)  (  1,  9,  8)  (  1, 11,  3)
  0 -0.1789E-01  0 -0.7884E-02  0  0.2816E-02  0  0.8275E-03  0  0.2910E-03
   (  1,  8,  2)  (  1,  2,  2)  (  1, 10,  6)  (  1, 10,  5)  (  1, 10,  5)
  1  0.8251E-02  0  0.3195E-02  0  0.1151E-02  0  0.5217E-03  0 -0.1103E-03
   (  1, 11,  4)  (  1, 11,  3)  (  1, 10,  6)  (  1, 10,  5)  (  1,  1,  2)
  1 -0.1000E-02  0 -0.3465E-03  0 -0.1407E-03  1 -0.8771E-04
   (  1, 11,  4)  (  1, 11,  4)  (  1, 10,  6)  (  1,  7,  3)



 OUTPUT CONTROL FOR STRESS PERIOD    1   TIME STEP    1
    SAVE HEAD FOR ALL LAYERS
    SAVE BUDGET
 UBDSV2 SAVING "   CONSTANT HEAD" ON UNIT  53 AT TIME STEP  1, STRESS PERIOD   1
 UBDSV1 SAVING "FLOW RIGHT FACE " ON UNIT  53 AT TIME STEP  1, STRESS PERIOD   1
 UBDSV1 SAVING "FLOW FRONT FACE " ON UNIT  53 AT TIME STEP  1, STRESS PERIOD   1

 HEAD WILL BE SAVED ON UNIT   51 AT END OF TIME STEP    1, STRESS PERIOD    1
1
  VOLUMETRIC BUDGET FOR ENTIRE MODEL AT END OF TIME STEP    1, STRESS PERIOD   1
  ------------------------------------------------------------------------------

     CUMULATIVE VOLUMES      L**3       RATES FOR THIS TIME STEP      L**3/T
     ------------------                 ------------------------

           IN:                                      IN:
           ---                                      ---
             STORAGE =           0.0000               STORAGE =           0.0000
       CONSTANT HEAD =           0.0000         CONSTANT HEAD =           0.0000
            RECHARGE =           0.0000              RECHARGE =         990.0000
        DRAINS (DRT) =           0.0000          DRAINS (DRT) =          33.1353

            TOTAL IN =           0.0000              TOTAL IN =        1023.1353

          OUT:                                     OUT:
          ----                                     ----
             STORAGE =           0.0000               STORAGE =           0.0000
       CONSTANT HEAD =           0.0000         CONSTANT HEAD =         940.2969
            RECHARGE =           0.0000              RECHARGE =           0.0000
        DRAINS (DRT) =           0.0000          DRAINS (DRT) =          82.8382

           TOTAL OUT =           0.0000             TOTAL OUT =        1023.1351

            IN - OUT =           0.0000              IN - OUT =       1.8311E-04

 PERCENT DISCREPANCY =           0.00     PERCENT DISCREPANCY =           0.00






         TIME SUMMARY AT END OF TIME STEP    1 IN STRESS PERIOD    1
                    SECONDS     MINUTES      HOURS       DAYS        YEARS
                    -----------------------------------------------------------
   TIME STEP LENGTH  0.0000      0.0000      0.0000      0.0000      0.0000    
 STRESS PERIOD TIME  0.0000      0.0000      0.0000      0.0000      0.0000    
         TOTAL TIME  0.0000      0.0000      0.0000      0.0000      0.0000    
1

 Run end date and time (yyyy/mm/dd hh:mm:ss): 2021/05/08 16:24:07
 Elapsed run time:  0.012 Seconds

