                                  MODFLOW-2005     
      U.S. GEOLOGICAL SURVEY MODULAR FINITE-DIFFERENCE GROUND-WATER FLOW MODEL
                            VERSION 1.12.00 2/3/2017

 LIST FILE: twrihfb.lst
                         UNIT    7

 OPENING twrihfb.dis
 FILE TYPE:DIS   UNIT   10   STATUS:OLD    
 FORMAT:FORMATTED              ACCESS:SEQUENTIAL          

 OPENING twrihfb.ba6
 FILE TYPE:BAS6   UNIT    8   STATUS:OLD    
 FORMAT:FORMATTED              ACCESS:SEQUENTIAL          

 OPENING twrihfb.bc6
 FILE TYPE:BCF6   UNIT   11   STATUS:OLD    
 FORMAT:FORMATTED              ACCESS:SEQUENTIAL          

 OPENING twrihfb.wel
 FILE TYPE:WEL   UNIT   12   STATUS:OLD    
 FORMAT:FORMATTED              ACCESS:SEQUENTIAL          

 OPENING twrihfb.drn
 FILE TYPE:DRN   UNIT   13   STATUS:OLD    
 FORMAT:FORMATTED              ACCESS:SEQUENTIAL          

 OPENING twrihfb.rch
 FILE TYPE:RCH   UNIT   18   STATUS:OLD    
 FORMAT:FORMATTED              ACCESS:SEQUENTIAL          

 OPENING twrihfb.sip
 FILE TYPE:SIP   UNIT   19   STATUS:OLD    
 FORMAT:FORMATTED              ACCESS:SEQUENTIAL          

 OPENING twrihfb.oc
 FILE TYPE:OC   UNIT   50   STATUS:OLD    
 FORMAT:FORMATTED              ACCESS:SEQUENTIAL          

 OPENING twrihfb.hfb
 FILE TYPE:HFB6   UNIT   30   STATUS:OLD    
 FORMAT:FORMATTED              ACCESS:SEQUENTIAL          

 OPENING twrihfb.hds
 FILE TYPE:DATA(BINARY)   UNIT   51   STATUS:REPLACE
 FORMAT:UNFORMATTED            ACCESS:STREAM              

 OPENING twrihfb.cbc
 FILE TYPE:DATA(BINARY)   UNIT   53   STATUS:REPLACE
 FORMAT:UNFORMATTED            ACCESS:STREAM              

 BAS -- BASIC PACKAGE, VERSION 7, 5/2/2005 INPUT READ FROM UNIT    8
 
 MODFLOW was compiled using mixed precision
 Precision of REAL variables:           6
 Precision of DOUBLE PRECISION variables:          15

 DISCRETIZATION INPUT DATA READ FROM UNIT   10
    3 LAYERS        15 ROWS        15 COLUMNS
    1 STRESS PERIOD(S) IN SIMULATION
 MODEL TIME UNIT IS SECONDS
 MODEL LENGTH UNIT IS UNDEFINED
  Confining bed flag for each layer:
   1   1   0

                     DELR =   5000.00    

                     DELC =   5000.00    

 TOP ELEVATION OF LAYER 1 =   200.000    

   MODEL LAYER BOTTOM EL. =  -150.000     FOR LAYER   1

 BOT. EL. OF QUASI-3D BED =  -200.000     FOR LAYER   1

   MODEL LAYER BOTTOM EL. =  -300.000     FOR LAYER   2

 BOT. EL. OF QUASI-3D BED =  -350.000     FOR LAYER   2

   MODEL LAYER BOTTOM EL. =  -450.000     FOR LAYER   3


 STRESS PERIOD     LENGTH       TIME STEPS     MULTIPLIER FOR DELT    SS FLAG
 ----------------------------------------------------------------------------
        1         86400.00          1                    1.000         SS

 STEADY-STATE SIMULATION



 
 #SAMPLE----3 LAYERS, 15 ROWS, 15 COLUMNS; STEADY STATE; CONSTANT HEADS COLUMN 1 
 #LAYERS 1 AND 2; RECHARGE, WELLS AND DRAINS                                     



                     BOUNDARY ARRAY FOR LAYER   1
 READING ON UNIT    8 WITH FORMAT: (20I4)              

        1   2   3   4   5   6   7   8   9  10  11  12  13  14  15
 ................................................................
   1   -1   1   1   1   1   1   1   1   1   1   1   1   1   1   1
   2   -1   1   1   1   1   1   1   1   1   1   1   1   1   1   1
   3   -1   1   1   1   1   1   1   1   1   1   1   1   1   1   1
   4   -1   1   1   1   1   1   1   1   1   1   1   1   1   1   1
   5   -1   1   1   1   1   1   1   1   1   1   1   1   1   1   1
   6   -1   1   1   1   1   1   1   1   1   1   1   1   1   1   1
   7   -1   1   1   1   1   1   1   1   1   1   1   1   1   1   1
   8   -1   1   1   1   1   1   1   1   1   1   1   1   1   1   1
   9   -1   1   1   1   1   1   1   1   1   1   1   1   1   1   1
  10   -1   1   1   1   1   1   1   1   1   1   1   1   1   1   1
  11   -1   1   1   1   1   1   1   1   1   1   1   1   1   1   1
  12   -1   1   1   1   1   1   1   1   1   1   1   1   1   1   1
  13   -1   1   1   1   1   1   1   1   1   1   1   1   1   1   1
  14   -1   1   1   1   1   1   1   1   1   1   1   1   1   1   1
  15   -1   1   1   1   1   1   1   1   1   1   1   1   1   1   1



                     BOUNDARY ARRAY FOR LAYER   2
 READING ON UNIT    8 WITH FORMAT: (20I4)              

        1   2   3   4   5   6   7   8   9  10  11  12  13  14  15
 ................................................................
   1   -1   1   1   1   1   1   1   1   1   1   1   1   1   1   1
   2   -1   1   1   1   1   1   1   1   1   1   1   1   1   1   1
   3   -1   1   1   1   1   1   1   1   1   1   1   1   1   1   1
   4   -1   1   1   1   1   1   1   1   1   1   1   1   1   1   1
   5   -1   1   1   1   1   1   1   1   1   1   1   1   1   1   1
   6   -1   1   1   1   1   1   1   1   1   1   1   1   1   1   1
   7   -1   1   1   1   1   1   1   1   1   1   1   1   1   1   1
   8   -1   1   1   1   1   1   1   1   1   1   1   1   1   1   1
   9   -1   1   1   1   1   1   1   1   1   1   1   1   1   1   1
  10   -1   1   1   1   1   1   1   1   1   1   1   1   1   1   1
  11   -1   1   1   1   1   1   1   1   1   1   1   1   1   1   1
  12   -1   1   1   1   1   1   1   1   1   1   1   1   1   1   1
  13   -1   1   1   1   1   1   1   1   1   1   1   1   1   1   1
  14   -1   1   1   1   1   1   1   1   1   1   1   1   1   1   1
  15   -1   1   1   1   1   1   1   1   1   1   1   1   1   1   1

           BOUNDARY ARRAY =              1 FOR LAYER   3

 AQUIFER HEAD WILL BE SET TO   999.99     AT ALL NO-FLOW NODES (IBOUND=0).

             INITIAL HEAD =   0.00000     FOR LAYER   1

             INITIAL HEAD =   0.00000     FOR LAYER   2

             INITIAL HEAD =   0.00000     FOR LAYER   3
 # OC package for  MODFLOW-2005, generated by Flopy.

 OUTPUT CONTROL IS SPECIFIED ONLY AT TIME STEPS FOR WHICH OUTPUT IS DESIRED
 COMPACT CELL-BY-CELL BUDGET FILES WILL BE WRITTEN
 AUXILIARY DATA WILL BE SAVED IN CELL-BY-CELL BUDGET FILES
 HEAD PRINT FORMAT CODE IS   0    DRAWDOWN PRINT FORMAT CODE IS   0
 HEADS WILL BE SAVED ON UNIT   51    DRAWDOWNS WILL BE SAVED ON UNIT    0

 BCF -- BLOCK-CENTERED FLOW PACKAGE, VERSION 7, 5/2/2005
         INPUT READ FROM UNIT 11
 STEADY-STATE SIMULATION
 CELL-BY-CELL FLOWS WILL BE SAVED ON UNIT 53
 HEAD AT CELLS THAT CONVERT TO DRY=  0.10000E+31
 WETTING CAPABILITY IS NOT ACTIVE
      LAYER  LAYER-TYPE CODE     INTERBLOCK T
      --------------------------------------------
         1            1          0 -- HARMONIC    
         2            0          0 -- HARMONIC    
         3            0          0 -- HARMONIC    

 COLUMN TO ROW ANISOTROPY =   1.00000    



              HYD. COND. ALONG ROWS FOR LAYER   1
 READING ON UNIT   11 WITH FORMAT: (FREE)              

            1           2           3           4           5           6           7           8           9          10
           11          12          13          14          15
 ........................................................................................................................
   1   1.0000E-03  1.0000E-03  1.0000E-03  1.0000E-03  1.0000E-03  1.0000E-03  1.0000E-03  1.0000E-03  1.0000E-03  1.0000E-03
       1.0000E-03  1.0000E-03  1.0000E-03  1.0000E-03  1.0000E-03
   2   1.0000E-03  1.0000E-03  1.0000E-03  1.0000E-03  1.0000E-03  1.0000E-03  1.0000E-03  1.0000E-03  1.0000E-03  1.0000E-03
       1.0000E-03  1.0000E-03  1.0000E-03  1.0000E-03  1.0000E-03
   3   1.0000E-03  1.0000E-03  1.0000E-03  1.0000E-03  1.0000E-03  1.0000E-03  1.0000E-03  1.0000E-03  1.0000E-03  1.0000E-03
       1.0000E-03  1.0000E-03  1.0000E-03  1.0000E-03  1.0000E-03
   4   1.0000E-03  1.0000E-03  1.0000E-03  1.0000E-03  1.0000E-03  1.0000E-03  1.0000E-03  1.0000E-03  1.0000E-03  1.0000E-03
       1.0000E-03  1.0000E-03  1.0000E-03  1.0000E-03  1.0000E-03
   5   1.0000E-03  1.0000E-03  1.0000E-03  1.0000E-03  1.0000E-03  1.0000E-03  1.0000E-03  1.0000E-03  1.0000E-03  1.0000E-03
       1.0000E-03  1.0000E-03  1.0000E-03  1.0000E-03  1.0000E-03
   6   1.0000E-03  1.0000E-03  1.0000E-03  1.0000E-03  1.0000E-03  1.0000E-03  1.0000E-03  1.0000E-03  1.0000E-03  1.0000E-03
       1.0000E-03  1.0000E-03  1.0000E-03  1.0000E-03  1.0000E-03
   7   1.0000E-03  1.0000E-03  1.0000E-03  1.0000E-03  1.0000E-03  1.0000E-03  1.0000E-03  1.0000E-03  1.0000E-03  1.0000E-03
       1.0000E-03  1.0000E-03  1.0000E-03  1.0000E-03  1.0000E-03
   8   1.0000E-03  1.0000E-03  1.0000E-03  1.0000E-03  1.0000E-03  1.0000E-03  1.0000E-03  1.0000E-03  1.0000E-03  1.0000E-03
       1.0000E-03  1.0000E-03  1.0000E-03  1.0000E-03  1.0000E-03
   9   1.0000E-03  1.0000E-03  1.0000E-03  1.0000E-03  1.0000E-03  1.0000E-03  1.0000E-03  1.0000E-03  1.0000E-03  1.0000E-03
       1.0000E-03  1.0000E-03  1.0000E-03  1.0000E-03  1.0000E-03
  10   1.0000E-03  1.0000E-03  1.0000E-03  1.0000E-03  1.0000E-03  1.0000E-03  1.0000E-03  1.0000E-03  1.0000E-03  1.0000E-03
       1.0000E-03  1.0000E-03  1.0000E-03   100.0      1.0000E-03
  11   1.0000E-03  1.0000E-03  1.0000E-03  1.0000E-03  1.0000E-03  1.0000E-03  1.0000E-03  1.0000E-03  1.0000E-03  1.0000E-03
       1.0000E-03  1.0000E-03  1.0000E-03  1.0000E-03  1.0000E-03
  12   1.0000E-03  1.0000E-03  1.0000E-03  1.0000E-03  1.0000E-03  1.0000E-03  1.0000E-03  1.0000E-03  1.0000E-03  1.0000E-03
       1.0000E-03  1.0000E-03  1.0000E-03  1.0000E-03  1.0000E-03
  13   1.0000E-03  1.0000E-03  1.0000E-03  1.0000E-03  1.0000E-03  1.0000E-03  1.0000E-03  1.0000E-03  1.0000E-03  1.0000E-03
       1.0000E-03  1.0000E-03  1.0000E-03  1.0000E-03  1.0000E-03
  14   1.0000E-03  1.0000E-03  1.0000E-03  1.0000E-03  1.0000E-03  1.0000E-03  1.0000E-03  1.0000E-03  1.0000E-03  1.0000E-03
       1.0000E-03  1.0000E-03  1.0000E-03  1.0000E-03  1.0000E-03
  15   1.0000E-03  1.0000E-03  1.0000E-03  1.0000E-03  1.0000E-03  1.0000E-03  1.0000E-03  1.0000E-03  1.0000E-03  1.0000E-03
       1.0000E-03  1.0000E-03  1.0000E-03  1.0000E-03  1.0000E-03

 VERT HYD COND /THICKNESS =  2.000000E-08 FOR LAYER   1

     TRANSMIS. ALONG ROWS =  1.000000E-02 FOR LAYER   2

 VERT HYD COND /THICKNESS =  1.000000E-08 FOR LAYER   2



               TRANSMIS. ALONG ROWS FOR LAYER   3
 READING ON UNIT   11 WITH FORMAT: (FREE)              

            1           2           3           4           5           6           7           8           9          10
           11          12          13          14          15
 ........................................................................................................................
   1   2.0000E-02  2.0000E-02  2.0000E-02  2.0000E-02  2.0000E-02  2.0000E-02  2.0000E-02  2.0000E-02  2.0000E-02  2.0000E-02
       2.0000E-02  2.0000E-02  2.0000E-02  2.0000E-02  2.0000E-02
   2   2.0000E-02  2.0000E-02  2.0000E-02  2.0000E-02  2.0000E-02  2.0000E-02  2.0000E-02  2.0000E-02  2.0000E-02  2.0000E-02
       2.0000E-02  2.0000E-02  2.0000E-02  2.0000E-02  2.0000E-02
   3   2.0000E-02  2.0000E-02  2.0000E-02  2.0000E-02  2.0000E-02  2.0000E-02  2.0000E-02  2.0000E-02  2.0000E-02  2.0000E-02
       2.0000E-02  2.0000E-02  2.0000E-02  2.0000E-02  2.0000E-02
   4   2.0000E-02  2.0000E-02  2.0000E-02  2.0000E-02  2.0000E-02  2.0000E-02  2.0000E-02  2.0000E-02  2.0000E-02  2.0000E-02
       2.0000E-02  2.0000E-02  2.0000E-02  2.0000E-02  2.0000E-02
   5   2.0000E-02  2.0000E-02  2.0000E-02  2.0000E-02  2.0000E-02  2.0000E-02  2.0000E-02  2.0000E-02  2.0000E-02  2.0000E-02
       2.0000E-02  2.0000E-02  2.0000E-02  2.0000E-02  2.0000E-02
   6   2.0000E-02  2.0000E-02  2.0000E-02  2.0000E-02  2.0000E-02  2.0000E-02  2.0000E-02  2.0000E-02  2.0000E-02  2.0000E-02
       2.0000E-02   2000.      2.0000E-02  2.0000E-02  2.0000E-02
   7   2.0000E-02  2.0000E-02  2.0000E-02  2.0000E-02  2.0000E-02  2.0000E-02  2.0000E-02  2.0000E-02  2.0000E-02  2.0000E-02
       2.0000E-02  2.0000E-02  2.0000E-02  2.0000E-02  2.0000E-02
   8   2.0000E-02  2.0000E-02  2.0000E-02  2.0000E-02  2.0000E-02  2.0000E-02  2.0000E-02  2.0000E-02  2.0000E-02  2.0000E-02
       2.0000E-02  2.0000E-02  2.0000E-02  2.0000E-02  2.0000E-02
   9   2.0000E-02  2.0000E-02  2.0000E-02  2.0000E-02  2.0000E-02  2.0000E-02  2.0000E-02  2.0000E-02  2.0000E-02  2.0000E-02
       2.0000E-02  2.0000E-02  2.0000E-02  2.0000E-02  2.0000E-02
  10   2.0000E-02  2.0000E-02  2.0000E-02  2.0000E-02  2.0000E-02  2.0000E-02  2.0000E-02  2.0000E-02  2.0000E-02  2.0000E-02
       2.0000E-02  2.0000E-02  2.0000E-02  2.0000E-02  2.0000E-02
  11   2.0000E-02  2.0000E-02  2.0000E-02  2.0000E-02  2.0000E-02  2.0000E-02  2.0000E-02  2.0000E-02  2.0000E-02  2.0000E-02
       2.0000E-02  2.0000E-02  2.0000E-02  2.0000E-02  2.0000E-02
  12   2.0000E-02  2.0000E-02  2.0000E-02  2.0000E-02  2.0000E-02  2.0000E-02  2.0000E-02  2.0000E-02  2.0000E-02  2.0000E-02
       2.0000E-02  2.0000E-02  2.0000E-02  2.0000E-02  2.0000E-02
  13   2.0000E-02  2.0000E-02  2.0000E-02  2.0000E-02  2.0000E-02  2.0000E-02  2.0000E-02  2.0000E-02  2.0000E-02  2.0000E-02
       2.0000E-02  2.0000E-02  2.0000E-02  2.0000E-02  2.0000E-02
  14   2.0000E-02  2.0000E-02  2.0000E-02  2.0000E-02  2.0000E-02  2.0000E-02  2.0000E-02  2.0000E-02  2.0000E-02  2.0000E-02
       2.0000E-02  2.0000E-02  2.0000E-02  2.0000E-02  2.0000E-02
  15   2.0000E-02  2.0000E-02  2.0000E-02  2.0000E-02  2.0000E-02  2.0000E-02  2.0000E-02  2.0000E-02  2.0000E-02  2.0000E-02
       2.0000E-02  2.0000E-02  2.0000E-02  2.0000E-02  2.0000E-02

 WEL -- WELL PACKAGE, VERSION 7, 5/2/2005 INPUT READ FROM UNIT   12
 No named parameters
 MAXIMUM OF     15 ACTIVE WELLS AT ONE TIME


     0 Well parameters

 DRN -- DRAIN PACKAGE, VERSION 7, 5/2/2005 INPUT READ FROM UNIT   13
 No named parameters
 MAXIMUM OF      9 ACTIVE DRAINS AT ONE TIME


     0 Drain parameters

 RCH -- RECHARGE PACKAGE, VERSION 7, 5/2/2005 INPUT READ FROM UNIT   18
 No named parameters
 OPTION 1 -- RECHARGE TO TOP LAYER


     0 Recharge parameters

 HFB -- HORIZONTAL-FLOW BARRIER PACKAGE, VERSION 7, 5/2/2005.
   INPUT READ FROM UNIT   30
 #Test problem from USGS Techniques and Methods 6 A-16.  Cells 1,10,14 and
 #  3,6,12 given a large transmissivity, and HFB is used to cause the
 #  transmissivity to be essentially the same as before.
 #  For layer 1, K is .001.  The barrier width will represent half a cell
 #  (2500 ft), so HYDCHR=.001/2500.
 #  For layer 3, K is .0002, so HYDCHR is .0002/2500.
     0 PARAMETERS DEFINE A MAXIMUM OF      0 HORIZONTAL FLOW BARRIERS
      8 HORIZONTAL FLOW BARRIERS NOT DEFINED BY PARAMETERS


     0 HFB parameters

      8 BARRIERS NOT DEFINED BY PARAMETERS

 BARRIER  LAYER  IROW1  ICOL1  IROW2  ICOL2    HYDCHR
 -------------------------------------------------------
      1      1      10     14     10     15   4.0000E-07
      2      1      10     13     10     14   4.0000E-07
      3      1      10     14     11     14   4.0000E-07
      4      1       9     14     10     14   4.0000E-07
      5      3       6     12      6     13   8.0000E-08
      6      3       6     11      6     12   8.0000E-08
      7      3       6     12      7     12   8.0000E-08
      8      3       5     12      6     12   8.0000E-08

      8 HFB BARRIERS

 SIP -- STRONGLY-IMPLICIT PROCEDURE SOLUTION PACKAGE
                    VERSION 7, 5/2/2005 INPUT READ FROM UNIT   19
 MAXIMUM OF  50 ITERATIONS ALLOWED FOR CLOSURE
  5 ITERATION PARAMETERS

          SOLUTION BY THE STRONGLY IMPLICIT PROCEDURE
          -------------------------------------------
 MAXIMUM ITERATIONS ALLOWED FOR CLOSURE =       50
                 ACCELERATION PARAMETER =     1.0000    
      HEAD CHANGE CRITERION FOR CLOSURE =    0.10000E-02
      SIP HEAD CHANGE PRINTOUT INTERVAL =        1

     5 ITERATION PARAMETERS CALCULATED FROM SPECIFIED WSEED = 0.00100000 :

  0.000000E+00 0.822172E+00 0.968377E+00 0.994377E+00 0.999000E+00
1
                            STRESS PERIOD NO.    1, LENGTH =   86400.00    
                            -----------------------------------------------

                              NUMBER OF TIME STEPS =     1

                               MULTIPLIER FOR DELT =     1.000

                            INITIAL TIME STEP SIZE =   86400.00    

 WELL NO.  LAYER   ROW   COL   STRESS RATE         
 --------------------------------------------------
      1      3      5     11      -5.000    
      2      2      4      6      -5.000    
      3      2      6     12      -5.000    
      4      1      9      8      -5.000    
      5      1      9     10      -5.000    
      6      1      9     12      -5.000    
      7      1      9     14      -5.000    
      8      1     11      8      -5.000    
      9      1     11     10      -5.000    
     10      1     11     12      -5.000    
     11      1     11     14      -5.000    
     12      1     13      8      -5.000    
     13      1     13     10      -5.000    
     14      1     13     12      -5.000    
     15      1     13     14      -5.000    

     15 WELLS

 DRAIN NO.  LAYER   ROW   COL     DRAIN EL.  CONDUCTANCE         
 ----------------------------------------------------------------
      1      1      8      2       0.000           1.000    
      2      1      8      3       0.000           1.000    
      3      1      8      4       10.00           1.000    
      4      1      8      5       20.00           1.000    
      5      1      8      6       30.00           1.000    
      6      1      8      7       50.00           1.000    
      7      1      8      8       70.00           1.000    
      8      1      8      9       90.00           1.000    
      9      1      8     10       100.0           1.000    

      9 DRAINS

                 RECHARGE =  3.000000E-08
 
 SOLVING FOR HEAD 

    31 ITERATIONS FOR TIME STEP   1 IN STRESS PERIOD    1

 MAXIMUM HEAD CHANGE FOR EACH ITERATION:

    HEAD CHANGE   HEAD CHANGE   HEAD CHANGE   HEAD CHANGE   HEAD CHANGE
  LAYER,ROW,COL LAYER,ROW,COL LAYER,ROW,COL LAYER,ROW,COL LAYER,ROW,COL
 ----------------------------------------------------------------------
     -22.41         12.48         13.39         48.21         35.91    
  (  3,  5, 11) (  1,  1, 15) (  3,  1, 14) (  1,  1, 15) (  3,  1, 13)
      2.480         1.430         6.215         7.414         13.66    
  (  1,  9, 14) (  3, 10, 13) (  1, 12, 14) (  3, 11, 14) (  1, 15, 15)
     0.5503        0.4820        0.4708         2.019         2.302    
  (  3,  8,  7) (  2,  6,  9) (  3,  5, 10) (  1, 11, 14) (  3,  5, 13)
     0.1109        0.7060E-01    0.2820        0.3142        0.3320    
  (  1, 13, 12) (  3, 12, 11) (  1, 14, 14) (  3, 13, 14) (  1, 15, 15)
     0.7860E-02    0.1588E-01    0.1779E-01    0.7915E-01    0.8504E-01
  (  1, 13, 12) (  2, 11, 11) (  3, 11, 10) (  1, 14, 14) (  3,  7, 14)
     0.4170E-02    0.2556E-02    0.9774E-02    0.1083E-01    0.1030E-01
  (  1, 13, 14) (  3, 14, 15) (  1, 14, 14) (  3, 13, 14) (  1, 15, 15)
     0.2436E-03
  (  1, 13, 12)


 OUTPUT CONTROL FOR STRESS PERIOD    1   TIME STEP    1
    SAVE HEAD FOR ALL LAYERS
    SAVE BUDGET
 UBDSV2 SAVING "   CONSTANT HEAD" ON UNIT  53 AT TIME STEP  1, STRESS PERIOD   1
 UBDSV1 SAVING "FLOW RIGHT FACE " ON UNIT  53 AT TIME STEP  1, STRESS PERIOD   1
 UBDSV1 SAVING "FLOW FRONT FACE " ON UNIT  53 AT TIME STEP  1, STRESS PERIOD   1
 UBDSV1 SAVING "FLOW LOWER FACE " ON UNIT  53 AT TIME STEP  1, STRESS PERIOD   1

 HEAD WILL BE SAVED ON UNIT   51 AT END OF TIME STEP    1, STRESS PERIOD    1
1
  VOLUMETRIC BUDGET FOR ENTIRE MODEL AT END OF TIME STEP    1, STRESS PERIOD   1
  ------------------------------------------------------------------------------

     CUMULATIVE VOLUMES      L**3       RATES FOR THIS TIME STEP      L**3/T
     ------------------                 ------------------------

           IN:                                      IN:
           ---                                      ---
             STORAGE =           0.0000               STORAGE =           0.0000
       CONSTANT HEAD =           0.0000         CONSTANT HEAD =           0.0000
               WELLS =           0.0000                 WELLS =           0.0000
              DRAINS =           0.0000                DRAINS =           0.0000
            RECHARGE =    13607999.0000              RECHARGE =         157.5000

            TOTAL IN =    13607999.0000              TOTAL IN =         157.5000

          OUT:                                     OUT:
          ----                                     ----
             STORAGE =           0.0000               STORAGE =           0.0000
       CONSTANT HEAD =     4326516.5000         CONSTANT HEAD =          50.0754
               WELLS =     6480000.0000                 WELLS =          75.0000
              DRAINS =     2801085.5000                DRAINS =          32.4200
            RECHARGE =           0.0000              RECHARGE =           0.0000

           TOTAL OUT =    13607602.0000             TOTAL OUT =         157.4954

            IN - OUT =         397.0000              IN - OUT =       4.5929E-03

 PERCENT DISCREPANCY =           0.00     PERCENT DISCREPANCY =           0.00






         TIME SUMMARY AT END OF TIME STEP    1 IN STRESS PERIOD    1
                    SECONDS     MINUTES      HOURS       DAYS        YEARS
                    -----------------------------------------------------------
   TIME STEP LENGTH  86400.      1440.0      24.000      1.0000     2.73785E-03
 STRESS PERIOD TIME  86400.      1440.0      24.000      1.0000     2.73785E-03
         TOTAL TIME  86400.      1440.0      24.000      1.0000     2.73785E-03
1

 Run end date and time (yyyy/mm/dd hh:mm:ss): 2021/05/08 16:24:08
 Elapsed run time:  0.013 Seconds

