                                  MODFLOW-2005     
      U.S. GEOLOGICAL SURVEY MODULAR FINITE-DIFFERENCE GROUND-WATER FLOW MODEL
                            VERSION 1.12.00 2/3/2017

 LIST FILE: cts1.lst
                         UNIT    1

 OPENING cts1.ba6
 FILE TYPE:BAS6   UNIT    7   STATUS:OLD    
 FORMAT:FORMATTED              ACCESS:SEQUENTIAL          

 OPENING cts1.lpf
 FILE TYPE:LPF   UNIT   11   STATUS:OLD    
 FORMAT:FORMATTED              ACCESS:SEQUENTIAL          

 OPENING cts1.dis
 FILE TYPE:DIS   UNIT   13   STATUS:OLD    
 FORMAT:FORMATTED              ACCESS:SEQUENTIAL          

 OPENING cts1.wel
 FILE TYPE:WEL   UNIT   12   STATUS:OLD    
 FORMAT:FORMATTED              ACCESS:SEQUENTIAL          

 OPENING cts1.sip
 FILE TYPE:SIP   UNIT   19   STATUS:OLD    
 FORMAT:FORMATTED              ACCESS:SEQUENTIAL          

 OPENING cts1.oc
 FILE TYPE:OC   UNIT   22   STATUS:OLD    
 FORMAT:FORMATTED              ACCESS:SEQUENTIAL          

 OPENING cts1.lmt
 FILE TYPE:LMT6   UNIT   32   STATUS:OLD    
 FORMAT:FORMATTED              ACCESS:SEQUENTIAL          

 BAS -- BASIC PACKAGE, VERSION 7, 5/2/2005 INPUT READ FROM UNIT    7
 
 MODFLOW was compiled using mixed precision
 Precision of REAL variables:           6
 Precision of DOUBLE PRECISION variables:          15

 DISCRETIZATION INPUT DATA READ FROM UNIT   13
 #Conversion from MF96 to MF2K5
 #transport in a flow field during an injection/withdrawl cycle
 #NLAY NROW NCOL NPER  ITMUNI LENUNI   (ITMUNI=4: days) (LENUNI=1: feet)
    1 LAYERS        31 ROWS        31 COLUMNS
    2 STRESS PERIOD(S) IN SIMULATION
 MODEL TIME UNIT IS DAYS
 MODEL LENGTH UNIT IS FEET
  Confining bed flag for each layer:
   0

                     DELR =   900.000    

                     DELC =   900.000    

 TOP ELEVATION OF LAYER 1 =   20.0000    

   MODEL LAYER BOTTOM EL. =   0.00000     FOR LAYER   1


 STRESS PERIOD     LENGTH       TIME STEPS     MULTIPLIER FOR DELT    SS FLAG
 ----------------------------------------------------------------------------
        1         912.5000          1                    1.000         TR
        2         2737.500          1                    1.000         TR

 TRANSIENT SIMULATION



 
 #Conversion of MF96 to MF2K5                                                    



                     BOUNDARY ARRAY FOR LAYER   1
 READING ON UNIT    7 WITH FORMAT: (FREE)              

 AQUIFER HEAD WILL BE SET TO  -888.00     AT ALL NO-FLOW NODES (IBOUND=0).



                       INITIAL HEAD FOR LAYER   1
 READING ON UNIT    7 WITH FORMAT: (FREE)              

 OUTPUT CONTROL IS SPECIFIED EVERY TIME STEP
 HEAD PRINT FORMAT CODE IS   1    DRAWDOWN PRINT FORMAT CODE IS   1
 HEADS WILL BE SAVED ON UNIT    0    DRAWDOWNS WILL BE SAVED ON UNIT    0

 LPF -- LAYER-PROPERTY FLOW PACKAGE, VERSION 7, 5/2/2005
         INPUT READ FROM UNIT   11
 #LPF - Layer-Property Flow Package Convertion of MF96 to MF2K5
 #ILPFCB HDRY NPLPF  (ILPFCB—is a flag and a unit number; NPLPF—is the number of LPF parameters)
 HEAD AT CELLS THAT CONVERT TO DRY=  -999.00    
 No named parameters

   LAYER FLAGS:
 LAYER       LAYTYP        LAYAVG         CHANI        LAYVKA        LAYWET
 ---------------------------------------------------------------------------
    1             0             2     1.000E+00             1             0

   INTERPRETATION OF LAYER FLAGS:
                        INTERBLOCK     HORIZONTAL    DATA IN
         LAYER TYPE   TRANSMISSIVITY   ANISOTROPY   ARRAY VKA   WETTABILITY
 LAYER      (LAYTYP)      (LAYAVG)       (CHANI)      (LAYVKA)      (LAYWET)
 ---------------------------------------------------------------------------
    1      CONFINED     LOG-ARITH     1.000E+00    ANISOTROPY  NON-WETTABLE

 WETTING CAPABILITY IS NOT ACTIVE IN ANY LAYER

    HYD. COND. ALONG ROWS =  5.000000E-03 FOR LAYER   1

  HORIZ. TO VERTICAL ANI. =   10.0000     FOR LAYER   1

         SPECIFIC STORAGE =   0.00000     FOR LAYER   1

 WEL -- WELL PACKAGE, VERSION 7, 5/2/2005 INPUT READ FROM UNIT   12
 No named parameters
 MAXIMUM OF      8 ACTIVE WELLS AT ONE TIME


     0 Well parameters

 SIP -- STRONGLY-IMPLICIT PROCEDURE SOLUTION PACKAGE
                    VERSION 7, 5/2/2005 INPUT READ FROM UNIT   19
 MAXIMUM OF 100 ITERATIONS ALLOWED FOR CLOSURE
  5 ITERATION PARAMETERS

          SOLUTION BY THE STRONGLY IMPLICIT PROCEDURE
          -------------------------------------------
 MAXIMUM ITERATIONS ALLOWED FOR CLOSURE =      100
                 ACCELERATION PARAMETER =     1.0000    
      HEAD CHANGE CRITERION FOR CLOSURE =    0.10000E-03
      SIP HEAD CHANGE PRINTOUT INTERVAL =        1

     5 ITERATION PARAMETERS CALCULATED FROM SPECIFIED WSEED = 0.00100000 :

  0.000000E+00 0.822172E+00 0.968377E+00 0.994377E+00 0.999000E+00


 ***Link-MT3DMS Package v7***
 OPENING LINK-MT3DMS OUTPUT FILE: cts1.ftl                                                                                                                                                                                                
 ON UNIT NUMBER:    34
 FILE TYPE: FORMATTED  
 HEADER OPTION: EXTENDED
 ***Link-MT3DMS Package v7***

1
                            STRESS PERIOD NO.    1, LENGTH =   912.5000    
                            -----------------------------------------------

                              NUMBER OF TIME STEPS =     1

                               MULTIPLIER FOR DELT =     1.000

                            INITIAL TIME STEP SIZE =   912.5000    

 WELL NO.  LAYER   ROW   COL   STRESS RATE         
 --------------------------------------------------
      1      1      8      6     -0.4320E+06
      2      1     13      6     -0.2592E+06
      3      1     18      6     -0.1728E+06
      4      1     23      6     -0.8640E+05
      5      1      8     25      0.4320E+05
      6      1     13     25      0.1296E+06
      7      1     18     25      0.3024E+06
      8      1     23     25      0.4752E+06

      8 WELLS
 
 SOLVING FOR HEAD 

    61 ITERATIONS FOR TIME STEP   1 IN STRESS PERIOD    1

 MAXIMUM HEAD CHANGE FOR EACH ITERATION:

    HEAD CHANGE   HEAD CHANGE   HEAD CHANGE   HEAD CHANGE   HEAD CHANGE
  LAYER,ROW,COL LAYER,ROW,COL LAYER,ROW,COL LAYER,ROW,COL LAYER,ROW,COL
 ----------------------------------------------------------------------
     0.1721E+07    0.6041E+06    0.7486E+06    0.5952E+06    0.1442E+06
  (  1, 23, 25) (  1, 22, 26) (  1, 21, 25) (  1, 21, 22) (  1,  6, 18)
    -0.2364E+05   -0.3765E+05   -0.3409E+05   -0.1737E+05    -8499.    
  (  1, 24, 20) (  1, 23, 18) (  1, 21, 20) (  1, 22, 16) (  1, 13, 19)
     -1531.        -1919.         2325.         1416.         1580.    
  (  1, 17, 23) (  1, 17, 23) (  1, 18, 12) (  1, 12, 16) (  1, 17, 22)
     -272.8        -505.2        -302.3        -444.5         203.6    
  (  1, 12, 17) (  1, 13, 18) (  1, 11, 17) (  1, 15, 21) (  1, 12, 17)
      36.83         57.68         75.49        -33.25        -44.75    
  (  1, 17, 21) (  1, 16, 21) (  1, 16, 21) (  1, 12, 15) (  1, 17, 21)
     -8.851        -16.03         8.439         12.89        -5.864    
  (  1, 22, 17) (  1, 21, 16) (  1, 11, 17) (  1, 15, 21) (  1, 12, 17)
     -1.122        -1.681        -2.226        0.9866         1.273    
  (  1, 16, 22) (  1, 16, 22) (  1, 16, 21) (  1, 12, 15) (  1, 17, 22)
     0.2281        0.4253       -0.2459       -0.3686        0.1708    
  (  1, 21, 16) (  1, 21, 16) (  1, 11, 17) (  1, 15, 21) (  1, 11, 17)
     0.3156E-01    0.4844E-01    0.6435E-01   -0.2822E-01   -0.3734E-01
  (  1, 16, 21) (  1, 16, 21) (  1, 16, 21) (  1, 12, 15) (  1, 17, 21)
    -0.7009E-02   -0.1290E-01    0.7081E-02    0.1079E-01   -0.4960E-02
  (  1, 21, 16) (  1, 21, 16) (  1, 11, 16) (  1, 15, 21) (  1, 11, 17)
    -0.9306E-03   -0.1420E-02   -0.1886E-02    0.8124E-03    0.1082E-02
  (  1, 16, 21) (  1, 16, 21) (  1, 16, 21) (  1, 11, 15) (  1, 17, 21)
     0.2001E-03    0.3700E-03   -0.2056E-03   -0.3128E-03    0.1443E-03
  (  1, 21, 16) (  1, 21, 16) (  1, 11, 16) (  1, 15, 21) (  1, 11, 17)
     0.2704E-04
  (  1, 16, 21)


 HEAD/DRAWDOWN PRINTOUT FLAG = 1     TOTAL BUDGET PRINTOUT FLAG = 1
 CELL-BY-CELL FLOW TERM FLAG = 1

 OUTPUT FLAGS FOR ALL LAYERS ARE THE SAME:
   HEAD    DRAWDOWN  HEAD  DRAWDOWN
 PRINTOUT  PRINTOUT  SAVE    SAVE
 ----------------------------------
     1         0       1       0

 SAVING SATURATED THICKNESS AND FLOW TERMS ON UNIT   34 FOR MT3DMS
 BY THE LINK-MT3DMS PACKAGE V7 AT TIME STEP    1, STRESS PERIOD    1

1
              HEAD IN LAYER   1 AT END OF TIME STEP   1 IN STRESS PERIOD    1
  ---------------------------------------------------------------------------

           1          2          3          4          5          6          7          8          9         10         11
          12         13         14         15         16         17         18         19         20         21         22
          23         24         25         26         27         28         29         30         31
 .........................................................................................................................
   1   1.356E+06  1.351E+06  1.346E+06  1.342E+06  1.337E+06  1.333E+06  1.329E+06  1.325E+06  1.321E+06  1.318E+06  1.315E+06
       1.313E+06  1.311E+06  1.309E+06  1.308E+06  1.308E+06  1.308E+06  1.309E+06  1.311E+06  1.313E+06  1.315E+06  1.318E+06
       1.321E+06  1.325E+06  1.329E+06  1.333E+06  1.337E+06  1.342E+06  1.346E+06  1.351E+06  1.356E+06
   2   1.351E+06  1.306E+06  1.264E+06  1.226E+06  1.196E+06  1.176E+06  1.168E+06  1.171E+06  1.181E+06  1.196E+06  1.212E+06
       1.228E+06  1.245E+06  1.260E+06  1.275E+06  1.289E+06  1.302E+06  1.314E+06  1.326E+06  1.337E+06  1.346E+06  1.355E+06
       1.362E+06  1.368E+06  1.371E+06  1.371E+06  1.370E+06  1.367E+06  1.362E+06  1.357E+06  1.351E+06
   3   1.346E+06  1.259E+06  1.176E+06  1.102E+06  1.043E+06  1.007E+06  9.973E+05  1.010E+06  1.037E+06  1.071E+06  1.108E+06
       1.145E+06  1.179E+06  1.212E+06  1.242E+06  1.270E+06  1.296E+06  1.320E+06  1.342E+06  1.361E+06  1.379E+06  1.394E+06
       1.405E+06  1.413E+06  1.415E+06  1.412E+06  1.404E+06  1.393E+06  1.379E+06  1.363E+06  1.346E+06
   4   1.342E+06  1.209E+06  1.080E+06  9.623E+05  8.676E+05  8.113E+05  8.041E+05  8.343E+05  8.851E+05  9.443E+05  1.005E+06
       1.062E+06  1.116E+06  1.166E+06  1.212E+06  1.254E+06  1.292E+06  1.327E+06  1.360E+06  1.389E+06  1.414E+06  1.436E+06
       1.452E+06  1.462E+06  1.464E+06  1.457E+06  1.442E+06  1.421E+06  1.397E+06  1.370E+06  1.342E+06
   5   1.337E+06  1.154E+06  9.724E+05  8.000E+05  6.538E+05  5.664E+05  5.737E+05  6.380E+05  7.251E+05  8.162E+05  9.035E+05
       9.841E+05  1.058E+06  1.124E+06  1.185E+06  1.241E+06  1.292E+06  1.338E+06  1.381E+06  1.419E+06  1.453E+06  1.483E+06
       1.506E+06  1.520E+06  1.523E+06  1.510E+06  1.486E+06  1.454E+06  1.417E+06  1.378E+06  1.337E+06
   6   1.333E+06  1.097E+06  8.558E+05  6.117E+05  3.812E+05  2.269E+05  2.861E+05  4.190E+05  5.609E+05  6.921E+05  8.091E+05
       9.129E+05  1.005E+06  1.089E+06  1.164E+06  1.232E+06  1.295E+06  1.353E+06  1.406E+06  1.454E+06  1.497E+06  1.536E+06
       1.567E+06  1.590E+06  1.598E+06  1.575E+06  1.537E+06  1.491E+06  1.441E+06  1.388E+06  1.333E+06
   7   1.329E+06  1.043E+06  7.425E+05  4.096E+05  3.238E+04 -3.259E+05 -7.544E+04  1.912E+05  4.075E+05  5.823E+05  7.279E+05
       8.529E+05  9.627E+05  1.061E+06  1.149E+06  1.230E+06  1.304E+06  1.373E+06  1.436E+06  1.494E+06  1.547E+06  1.595E+06
       1.638E+06  1.676E+06  1.702E+06  1.655E+06  1.596E+06  1.533E+06  1.467E+06  1.399E+06  1.329E+06
   8   1.325E+06  1.005E+06  6.614E+05  2.520E+05 -3.354E+05 -1.487E+06 -4.531E+05  1.351E+04  2.957E+05  5.015E+05  6.673E+05
       8.083E+05  9.317E+05  1.042E+06  1.142E+06  1.234E+06  1.319E+06  1.397E+06  1.471E+06  1.538E+06  1.601E+06  1.659E+06
       1.714E+06  1.775E+06  1.878E+06  1.747E+06  1.659E+06  1.577E+06  1.495E+06  1.411E+06  1.325E+06
   9   1.321E+06  9.909E+05  6.461E+05  2.721E+05 -1.386E+05 -5.154E+05 -2.629E+05  2.026E+04  2.602E+05  4.607E+05  6.317E+05
       7.810E+05  9.139E+05  1.034E+06  1.144E+06  1.245E+06  1.339E+06  1.428E+06  1.511E+06  1.588E+06  1.660E+06  1.726E+06
       1.784E+06  1.832E+06  1.856E+06  1.796E+06  1.714E+06  1.623E+06  1.525E+06  1.424E+06  1.321E+06
  10   1.318E+06  9.909E+05  6.599E+05  3.291E+05  2.443E+04 -1.726E+05 -1.035E+05  7.023E+04  2.643E+05  4.492E+05  6.178E+05
       7.703E+05  9.089E+05  1.036E+06  1.153E+06  1.263E+06  1.366E+06  1.464E+06  1.556E+06  1.644E+06  1.726E+06  1.801E+06
       1.865E+06  1.910E+06  1.920E+06  1.868E+06  1.780E+06  1.674E+06  1.559E+06  1.440E+06  1.318E+06
  11   1.315E+06  9.946E+05  6.737E+05  3.597E+05  7.979E+04 -9.581E+04 -4.883E+04  9.990E+04  2.775E+05  4.541E+05  6.201E+05
       7.736E+05  9.154E+05  1.047E+06  1.171E+06  1.288E+06  1.399E+06  1.505E+06  1.607E+06  1.705E+06  1.798E+06  1.886E+06
       1.965E+06  2.026E+06  2.044E+06  1.975E+06  1.864E+06  1.735E+06  1.598E+06  1.458E+06  1.315E+06
  12   1.313E+06  9.986E+05  6.806E+05  3.563E+05  3.082E+04 -2.416E+05 -9.590E+04  1.007E+05  2.917E+05  4.697E+05  6.348E+05
       7.884E+05  9.320E+05  1.067E+06  1.195E+06  1.318E+06  1.436E+06  1.550E+06  1.661E+06  1.770E+06  1.876E+06  1.980E+06
       2.083E+06  2.183E+06  2.256E+06  2.124E+06  1.965E+06  1.803E+06  1.641E+06  1.477E+06  1.313E+06
  13   1.311E+06  1.007E+06  6.938E+05  3.541E+05 -7.121E+04 -8.056E+05 -1.938E+05  1.071E+05  3.188E+05  4.981E+05  6.611E+05
       8.132E+05  9.569E+05  1.094E+06  1.225E+06  1.353E+06  1.477E+06  1.599E+06  1.719E+06  1.838E+06  1.956E+06  2.076E+06
       2.204E+06  2.367E+06  2.675E+06  2.299E+06  2.068E+06  1.872E+06  1.684E+06  1.498E+06  1.311E+06
  14   1.309E+06  1.023E+06  7.340E+05  4.376E+05  1.358E+05 -1.237E+05  1.904E+04  2.028E+05  3.783E+05  5.429E+05  6.984E+05
       8.465E+05  9.886E+05  1.126E+06  1.260E+06  1.391E+06  1.520E+06  1.649E+06  1.777E+06  1.906E+06  2.035E+06  2.163E+06
       2.289E+06  2.406E+06  2.481E+06  2.330E+06  2.137E+06  1.934E+06  1.727E+06  1.519E+06  1.309E+06
  15   1.308E+06  1.044E+06  7.811E+05  5.266E+05  3.005E+05  1.559E+05  1.909E+05  3.066E+05  4.488E+05  5.966E+05  7.429E+05
       8.858E+05  1.025E+06  1.162E+06  1.296E+06  1.430E+06  1.564E+06  1.699E+06  1.835E+06  1.974E+06  2.114E+06  2.254E+06
       2.384E+06  2.486E+06  2.514E+06  2.401E+06  2.215E+06  1.999E+06  1.771E+06  1.540E+06  1.308E+06
  16   1.308E+06  1.063E+06  8.200E+05  5.871E+05  3.835E+05  2.561E+05  2.822E+05  3.838E+05  5.137E+05  6.519E+05  7.909E+05
       9.286E+05  1.065E+06  1.199E+06  1.334E+06  1.469E+06  1.607E+06  1.747E+06  1.891E+06  2.041E+06  2.195E+06  2.353E+06
       2.508E+06  2.638E+06  2.688E+06  2.547E+06  2.324E+06  2.075E+06  1.819E+06  1.563E+06  1.308E+06
  17   1.308E+06  1.079E+06  8.492E+05  6.181E+05  3.905E+05  2.026E+05  2.980E+05  4.328E+05  5.704E+05  7.063E+05  8.403E+05
       9.730E+05  1.105E+06  1.237E+06  1.371E+06  1.507E+06  1.647E+06  1.791E+06  1.943E+06  2.102E+06  2.272E+06  2.455E+06
       2.656E+06  2.873E+06  3.052E+06  2.775E+06  2.459E+06  2.157E+06  1.868E+06  1.586E+06  1.308E+06
  18   1.309E+06  1.097E+06  8.793E+05  6.459E+05  3.577E+05 -1.341E+05  2.743E+05  4.790E+05  6.289E+05  7.625E+05  8.910E+05
       1.018E+06  1.145E+06  1.274E+06  1.406E+06  1.541E+06  1.682E+06  1.829E+06  1.986E+06  2.153E+06  2.336E+06  2.540E+06
       2.787E+06  3.144E+06  3.873E+06  3.042E+06  2.580E+06  2.225E+06  1.908E+06  1.606E+06  1.309E+06
  19   1.311E+06  1.119E+06  9.255E+05  7.284E+05  5.284E+05  3.571E+05  4.542E+05  5.800E+05  7.035E+05  8.239E+05  9.432E+05
       1.063E+06  1.184E+06  1.308E+06  1.436E+06  1.569E+06  1.709E+06  1.858E+06  2.017E+06  2.189E+06  2.377E+06  2.583E+06
       2.807E+06  3.045E+06  3.231E+06  2.939E+06  2.594E+06  2.257E+06  1.934E+06  1.620E+06  1.311E+06
  20   1.313E+06  1.143E+06  9.755E+05  8.136E+05  6.706E+05  5.800E+05  6.053E+05  6.835E+05  7.812E+05  8.863E+05  9.949E+05
       1.106E+06  1.220E+06  1.339E+06  1.462E+06  1.591E+06  1.729E+06  1.876E+06  2.036E+06  2.210E+06  2.401E+06  2.606E+06
       2.815E+06  2.996E+06  3.067E+06  2.889E+06  2.599E+06  2.275E+06  1.950E+06  1.629E+06  1.313E+06
  21   1.315E+06  1.166E+06  1.019E+06  8.800E+05  7.602E+05  6.870E+05  7.035E+05  7.673E+05  8.517E+05  9.453E+05  1.044E+06
       1.146E+06  1.253E+06  1.364E+06  1.481E+06  1.605E+06  1.738E+06  1.882E+06  2.040E+06  2.215E+06  2.410E+06  2.624E+06
       2.852E+06  3.058E+06  3.151E+06  2.952E+06  2.637E+06  2.296E+06  1.961E+06  1.635E+06  1.315E+06
  22   1.318E+06  1.187E+06  1.056E+06  9.269E+05  8.030E+05  7.045E+05  7.544E+05  8.304E+05  9.130E+05  9.993E+05  1.089E+06
       1.183E+06  1.280E+06  1.383E+06  1.493E+06  1.609E+06  1.736E+06  1.874E+06  2.028E+06  2.201E+06  2.399E+06  2.631E+06
       2.908E+06  3.234E+06  3.528E+06  3.131E+06  2.699E+06  2.312E+06  1.962E+06  1.635E+06  1.318E+06
  23   1.321E+06  1.207E+06  1.091E+06  9.685E+05  8.206E+05  5.734E+05  7.793E+05  8.868E+05  9.705E+05  1.050E+06  1.130E+06
       1.214E+06  1.303E+06  1.397E+06  1.497E+06  1.605E+06  1.722E+06  1.851E+06  1.996E+06  2.161E+06  2.354E+06  2.592E+06
       2.915E+06  3.443E+06  4.596E+06  3.345E+06  2.718E+06  2.290E+06  1.940E+06  1.624E+06  1.321E+06
  24   1.325E+06  1.229E+06  1.133E+06  1.035E+06  9.373E+05  8.532E+05  9.027E+05  9.672E+05  1.032E+06  1.099E+06  1.169E+06
       1.242E+06  1.320E+06  1.403E+06  1.493E+06  1.590E+06  1.696E+06  1.813E+06  1.944E+06  2.092E+06  2.264E+06  2.468E+06
       2.719E+06  3.025E+06  3.315E+06  2.936E+06  2.537E+06  2.191E+06  1.883E+06  1.599E+06  1.325E+06
  25   1.329E+06  1.252E+06  1.176E+06  1.103E+06  1.040E+06  9.996E+05  1.011E+06  1.047E+06  1.093E+06  1.145E+06  1.203E+06
       1.265E+06  1.332E+06  1.404E+06  1.482E+06  1.567E+06  1.660E+06  1.762E+06  1.874E+06  2.000E+06  2.141E+06  2.298E+06
       2.466E+06  2.625E+06  2.702E+06  2.545E+06  2.305E+06  2.052E+06  1.804E+06  1.564E+06  1.329E+06
  26   1.333E+06  1.273E+06  1.215E+06  1.162E+06  1.119E+06  1.094E+06  1.095E+06  1.115E+06  1.147E+06  1.187E+06  1.232E+06
       1.283E+06  1.338E+06  1.398E+06  1.464E+06  1.536E+06  1.614E+06  1.699E+06  1.792E+06  1.893E+06  2.002E+06  2.115E+06
       2.224E+06  2.306E+06  2.325E+06  2.238E+06  2.087E+06  1.906E+06  1.717E+06  1.525E+06  1.333E+06
  27   1.337E+06  1.292E+06  1.249E+06  1.210E+06  1.180E+06  1.163E+06  1.161E+06  1.172E+06  1.194E+06  1.222E+06  1.257E+06
       1.296E+06  1.340E+06  1.388E+06  1.440E+06  1.498E+06  1.560E+06  1.628E+06  1.701E+06  1.779E+06  1.860E+06  1.938E+06
       2.007E+06  2.051E+06  2.052E+06  1.996E+06  1.897E+06  1.771E+06  1.631E+06  1.485E+06  1.337E+06
  28   1.342E+06  1.309E+06  1.278E+06  1.250E+06  1.229E+06  1.216E+06  1.213E+06  1.219E+06  1.233E+06  1.252E+06  1.276E+06
       1.305E+06  1.337E+06  1.373E+06  1.412E+06  1.455E+06  1.502E+06  1.552E+06  1.606E+06  1.662E+06  1.719E+06  1.771E+06
       1.814E+06  1.838E+06  1.835E+06  1.799E+06  1.734E+06  1.649E+06  1.552E+06  1.448E+06  1.342E+06
  29   1.346E+06  1.324E+06  1.303E+06  1.284E+06  1.270E+06  1.260E+06  1.257E+06  1.259E+06  1.266E+06  1.277E+06  1.292E+06
       1.310E+06  1.330E+06  1.354E+06  1.380E+06  1.408E+06  1.439E+06  1.473E+06  1.509E+06  1.545E+06  1.581E+06  1.614E+06
       1.640E+06  1.654E+06  1.651E+06  1.630E+06  1.591E+06  1.539E+06  1.479E+06  1.414E+06  1.346E+06
  30   1.351E+06  1.338E+06  1.325E+06  1.314E+06  1.305E+06  1.298E+06  1.294E+06  1.293E+06  1.295E+06  1.299E+06  1.304E+06
       1.312E+06  1.321E+06  1.332E+06  1.345E+06  1.359E+06  1.374E+06  1.392E+06  1.410E+06  1.429E+06  1.447E+06  1.464E+06
       1.478E+06  1.486E+06  1.486E+06  1.477E+06  1.461E+06  1.438E+06  1.411E+06  1.382E+06  1.351E+06
  31   1.356E+06  1.351E+06  1.346E+06  1.342E+06  1.337E+06  1.333E+06  1.329E+06  1.325E+06  1.321E+06  1.318E+06  1.315E+06
       1.313E+06  1.311E+06  1.309E+06  1.308E+06  1.308E+06  1.308E+06  1.309E+06  1.311E+06  1.313E+06  1.315E+06  1.318E+06
       1.321E+06  1.325E+06  1.329E+06  1.333E+06  1.337E+06  1.342E+06  1.346E+06  1.351E+06  1.356E+06
1
  VOLUMETRIC BUDGET FOR ENTIRE MODEL AT END OF TIME STEP    1, STRESS PERIOD   1
  ------------------------------------------------------------------------------

     CUMULATIVE VOLUMES      L**3       RATES FOR THIS TIME STEP      L**3/T
     ------------------                 ------------------------

           IN:                                      IN:
           ---                                      ---
             STORAGE =           0.0000               STORAGE =           0.0000
       CONSTANT HEAD =   635324160.0000         CONSTANT HEAD =      696245.6250
               WELLS =   867240000.0000                 WELLS =      950400.0000

            TOTAL IN =  1502564096.0000              TOTAL IN =     1646645.6250

          OUT:                                     OUT:
          ----                                     ----
             STORAGE =           0.0000               STORAGE =           0.0000
       CONSTANT HEAD =   635324160.0000         CONSTANT HEAD =      696245.6250
               WELLS =   867240000.0000                 WELLS =      950400.0000

           TOTAL OUT =  1502564096.0000             TOTAL OUT =     1646645.6250

            IN - OUT =           0.0000              IN - OUT =           0.0000

 PERCENT DISCREPANCY =           0.00     PERCENT DISCREPANCY =           0.00






         TIME SUMMARY AT END OF TIME STEP    1 IN STRESS PERIOD    1
                    SECONDS     MINUTES      HOURS       DAYS        YEARS
                    -----------------------------------------------------------
   TIME STEP LENGTH 7.88400E+07 1.31400E+06  21900.      912.50      2.4983    
 STRESS PERIOD TIME 7.88400E+07 1.31400E+06  21900.      912.50      2.4983    
         TOTAL TIME 7.88400E+07 1.31400E+06  21900.      912.50      2.4983    
1
1
                            STRESS PERIOD NO.    2, LENGTH =   2737.500    
                            -----------------------------------------------

                              NUMBER OF TIME STEPS =     1

                               MULTIPLIER FOR DELT =     1.000

                            INITIAL TIME STEP SIZE =   2737.500    

 WELL NO.  LAYER   ROW   COL   STRESS RATE         
 --------------------------------------------------
      1      1      8      6     -0.5184E+06
      2      1     13      6     -0.3456E+06
      3      1     18      6     -0.2592E+06
      4      1     23      6     -0.1728E+06
      5      1      8     25      0.1296E+06
      6      1     13     25      0.2160E+06
      7      1     18     25      0.3888E+06
      8      1     23     25      0.5616E+06

      8 WELLS
 
 SOLVING FOR HEAD 

    61 ITERATIONS FOR TIME STEP   1 IN STRESS PERIOD    2

 MAXIMUM HEAD CHANGE FOR EACH ITERATION:

    HEAD CHANGE   HEAD CHANGE   HEAD CHANGE   HEAD CHANGE   HEAD CHANGE
  LAYER,ROW,COL LAYER,ROW,COL LAYER,ROW,COL LAYER,ROW,COL LAYER,ROW,COL
 ----------------------------------------------------------------------
    -0.3145E+06   -0.1267E+06    0.1932E+06    0.1767E+06    0.6132E+05
  (  1, 13,  6) (  1, 17,  7) (  1, 16, 25) (  1, 17, 23) (  1,  7, 17)
      5013.        -8750.       -0.1571E+05    -9819.         4369.    
  (  1, 29, 21) (  1, 14, 23) (  1, 16, 22) (  1, 18, 24) (  1, 15, 21)
      805.3         1411.        -1336.        -1143.         772.9    
  (  1, 11, 16) (  1, 11, 16) (  1, 21, 15) (  1, 17, 20) (  1, 21, 16)
      159.5         263.6         231.0         170.9        -143.9    
  (  1, 16, 20) (  1, 16, 20) (  1, 16, 21) (  1, 11, 17) (  1, 15, 21)
     -25.53        -44.91         32.91         34.03        -21.75    
  (  1, 11, 16) (  1, 11, 16) (  1, 22, 15) (  1, 17, 20) (  1, 21, 16)
     -4.150        -7.053        -6.852        -4.928         4.125    
  (  1, 16, 21) (  1, 16, 20) (  1, 16, 21) (  1, 12, 17) (  1, 15, 21)
     0.7443         1.299       -0.9582        -1.020        0.6515    
  (  1, 11, 16) (  1, 11, 16) (  1, 21, 15) (  1, 17, 20) (  1, 21, 16)
     0.1285        0.2160        0.2024        0.1452       -0.1224    
  (  1, 16, 20) (  1, 16, 20) (  1, 16, 21) (  1, 12, 17) (  1, 15, 21)
    -0.2184E-01   -0.3830E-01    0.2805E-01    0.3006E-01   -0.1883E-01
  (  1, 11, 16) (  1, 11, 16) (  1, 22, 15) (  1, 17, 20) (  1, 21, 16)
    -0.3680E-02   -0.6215E-02   -0.5967E-02   -0.4254E-02    0.3584E-02
  (  1, 16, 20) (  1, 16, 20) (  1, 16, 21) (  1, 12, 17) (  1, 16, 20)
     0.6408E-03    0.1123E-02   -0.8171E-03   -0.8918E-03    0.5526E-03
  (  1, 11, 16) (  1, 11, 16) (  1, 22, 15) (  1, 17, 20) (  1, 21, 16)
     0.1089E-03    0.1832E-03    0.1760E-03    0.1245E-03   -0.1056E-03
  (  1, 16, 20) (  1, 16, 20) (  1, 16, 21) (  1, 12, 17) (  1, 16, 20)
    -0.1879E-04
  (  1, 11, 16)


 HEAD/DRAWDOWN PRINTOUT FLAG = 1     TOTAL BUDGET PRINTOUT FLAG = 1
 CELL-BY-CELL FLOW TERM FLAG = 1

 OUTPUT FLAGS FOR ALL LAYERS ARE THE SAME:
   HEAD    DRAWDOWN  HEAD  DRAWDOWN
 PRINTOUT  PRINTOUT  SAVE    SAVE
 ----------------------------------
     1         0       1       0

 SAVING SATURATED THICKNESS AND FLOW TERMS ON UNIT   34 FOR MT3DMS
 BY THE LINK-MT3DMS PACKAGE V7 AT TIME STEP    1, STRESS PERIOD    2

1
              HEAD IN LAYER   1 AT END OF TIME STEP   1 IN STRESS PERIOD    2
  ---------------------------------------------------------------------------

           1          2          3          4          5          6          7          8          9         10         11
          12         13         14         15         16         17         18         19         20         21         22
          23         24         25         26         27         28         29         30         31
 .........................................................................................................................
   1   1.356E+06  1.351E+06  1.346E+06  1.342E+06  1.337E+06  1.333E+06  1.329E+06  1.325E+06  1.321E+06  1.318E+06  1.315E+06
       1.313E+06  1.311E+06  1.309E+06  1.308E+06  1.308E+06  1.308E+06  1.309E+06  1.311E+06  1.313E+06  1.315E+06  1.318E+06
       1.321E+06  1.325E+06  1.329E+06  1.333E+06  1.337E+06  1.342E+06  1.346E+06  1.351E+06  1.356E+06
   2   1.351E+06  1.297E+06  1.246E+06  1.200E+06  1.164E+06  1.141E+06  1.132E+06  1.137E+06  1.150E+06  1.169E+06  1.190E+06
       1.212E+06  1.233E+06  1.254E+06  1.274E+06  1.293E+06  1.312E+06  1.330E+06  1.347E+06  1.363E+06  1.378E+06  1.392E+06
       1.403E+06  1.410E+06  1.412E+06  1.410E+06  1.403E+06  1.393E+06  1.380E+06  1.366E+06  1.351E+06
   3   1.346E+06  1.240E+06  1.139E+06  1.048E+06  9.771E+05  9.337E+05  9.227E+05  9.389E+05  9.730E+05  1.016E+06  1.063E+06
       1.111E+06  1.156E+06  1.200E+06  1.241E+06  1.280E+06  1.316E+06  1.351E+06  1.384E+06  1.415E+06  1.443E+06  1.468E+06
       1.487E+06  1.499E+06  1.501E+06  1.492E+06  1.473E+06  1.446E+06  1.415E+06  1.381E+06  1.346E+06
   4   1.342E+06  1.179E+06  1.021E+06  8.779E+05  7.626E+05  6.942E+05  6.859E+05  7.234E+05  7.866E+05  8.608E+05  9.372E+05
       1.011E+06  1.082E+06  1.148E+06  1.210E+06  1.268E+06  1.323E+06  1.375E+06  1.424E+06  1.470E+06  1.512E+06  1.549E+06
       1.580E+06  1.598E+06  1.601E+06  1.583E+06  1.549E+06  1.504E+06  1.453E+06  1.398E+06  1.342E+06
   5   1.337E+06  1.112E+06  8.898E+05  6.792E+05  5.010E+05  3.947E+05  4.034E+05  4.821E+05  5.894E+05  7.030E+05  8.130E+05
       9.161E+05  1.012E+06  1.100E+06  1.182E+06  1.259E+06  1.332E+06  1.401E+06  1.466E+06  1.528E+06  1.586E+06  1.638E+06
       1.683E+06  1.714E+06  1.720E+06  1.690E+06  1.636E+06  1.569E+06  1.495E+06  1.417E+06  1.337E+06
   6   1.333E+06  1.042E+06  7.466E+05  4.482E+05  1.675E+05 -1.988E+04  5.078E+04  2.121E+05  3.860E+05  5.487E+05  6.957E+05
       8.283E+05  9.485E+05  1.059E+06  1.160E+06  1.256E+06  1.345E+06  1.430E+06  1.512E+06  1.589E+06  1.664E+06  1.735E+06
       1.801E+06  1.854E+06  1.875E+06  1.822E+06  1.737E+06  1.641E+06  1.540E+06  1.437E+06  1.333E+06
   7   1.329E+06  9.764E+05  6.065E+05  1.993E+05 -2.592E+05 -6.925E+05 -3.925E+05 -7.040E+04  1.938E+05  4.100E+05  5.930E+05
       7.527E+05  8.954E+05  1.025E+06  1.145E+06  1.257E+06  1.363E+06  1.464E+06  1.561E+06  1.655E+06  1.746E+06  1.838E+06
       1.931E+06  2.027E+06  2.105E+06  1.986E+06  1.850E+06  1.717E+06  1.587E+06  1.458E+06  1.329E+06
   8   1.325E+06  9.282E+05  5.036E+05  1.613E+03 -7.112E+05 -2.098E+06 -8.578E+05 -2.950E+05  4.945E+04  3.046E+05  5.136E+05
       6.942E+05  8.552E+05  1.002E+06  1.138E+06  1.265E+06  1.386E+06  1.501E+06  1.613E+06  1.722E+06  1.829E+06  1.938E+06
       2.058E+06  2.218E+06  2.530E+06  2.168E+06  1.958E+06  1.790E+06  1.632E+06  1.478E+06  1.325E+06
   9   1.321E+06  9.078E+05  4.779E+05  1.488E+04 -4.891E+05 -9.476E+05 -6.453E+05 -3.013E+05 -5.532E+03  2.453E+05  4.626E+05
       6.553E+05  8.294E+05  9.895E+05  1.139E+06  1.279E+06  1.413E+06  1.543E+06  1.668E+06  1.790E+06  1.910E+06  2.028E+06
       2.145E+06  2.256E+06  2.334E+06  2.197E+06  2.026E+06  1.851E+06  1.675E+06  1.498E+06  1.321E+06
  10   1.318E+06  9.036E+05  4.854E+05  6.907E+04 -3.122E+05 -5.579E+05 -4.747E+05 -2.592E+05 -1.556E+04  2.194E+05  4.362E+05
       6.348E+05  8.178E+05  9.880E+05  1.148E+06  1.300E+06  1.446E+06  1.588E+06  1.726E+06  1.861E+06  1.993E+06  2.120E+06
       2.237E+06  2.327E+06  2.354E+06  2.258E+06  2.099E+06  1.914E+06  1.718E+06  1.519E+06  1.318E+06
  11   1.315E+06  9.031E+05  4.911E+05  8.819E+04 -2.710E+05 -4.969E+05 -4.363E+05 -2.454E+05 -1.687E+04  2.116E+05  4.280E+05
       6.301E+05  8.189E+05  9.966E+05  1.165E+06  1.327E+06  1.484E+06  1.637E+06  1.787E+06  1.935E+06  2.081E+06  2.223E+06
       2.355E+06  2.462E+06  2.498E+06  2.383E+06  2.198E+06  1.986E+06  1.765E+06  1.541E+06  1.315E+06
  12   1.313E+06  9.027E+05  4.876E+05  6.367E+04 -3.632E+05 -7.224E+05 -5.283E+05 -2.691E+05 -1.818E+04  2.160E+05  4.342E+05
       6.385E+05  8.311E+05  1.014E+06  1.190E+06  1.359E+06  1.525E+06  1.688E+06  1.850E+06  2.011E+06  2.172E+06  2.335E+06
       2.500E+06  2.667E+06  2.793E+06  2.578E+06  2.323E+06  2.068E+06  1.816E+06  1.564E+06  1.313E+06
  13   1.311E+06  9.075E+05  4.928E+05  4.215E+04 -5.231E+05 -1.501E+06 -6.854E+05 -2.845E+05 -2.751E+03  2.363E+05  4.543E+05
       6.587E+05  8.529E+05  1.039E+06  1.220E+06  1.396E+06  1.569E+06  1.741E+06  1.913E+06  2.086E+06  2.262E+06  2.444E+06
       2.645E+06  2.911E+06  3.428E+06  2.813E+06  2.448E+06  2.148E+06  1.865E+06  1.587E+06  1.311E+06
  14   1.309E+06  9.239E+05  5.341E+05  1.352E+05 -2.702E+05 -6.179E+05 -4.274E+05 -1.809E+05  5.543E+04  2.776E+05  4.880E+05
       6.891E+05  8.827E+05  1.070E+06  1.254E+06  1.435E+06  1.614E+06  1.794E+06  1.975E+06  2.159E+06  2.345E+06  2.534E+06
       2.724E+06  2.907E+06  3.034E+06  2.799E+06  2.508E+06  2.209E+06  1.909E+06  1.609E+06  1.309E+06
  15   1.308E+06  9.451E+05  5.843E+05  2.349E+05 -7.510E+04 -2.729E+05 -2.255E+05 -6.719E+04  1.278E+05  3.306E+05  5.312E+05
       7.271E+05  9.182E+05  1.106E+06  1.291E+06  1.475E+06  1.659E+06  1.846E+06  2.036E+06  2.229E+06  2.426E+06  2.623E+06
       2.809E+06  2.957E+06  3.002E+06  2.842E+06  2.577E+06  2.272E+06  1.954E+06  1.631E+06  1.308E+06
  16   1.308E+06  9.639E+05  6.231E+05  2.953E+05  7.780E+03 -1.730E+05 -1.345E+05  9.828E+03  1.925E+05  3.856E+05  5.790E+05
       7.697E+05  9.576E+05  1.143E+06  1.328E+06  1.514E+06  1.702E+06  1.894E+06  2.092E+06  2.296E+06  2.507E+06  2.722E+06
       2.933E+06  3.110E+06  3.177E+06  2.988E+06  2.686E+06  2.348E+06  2.002E+06  1.655E+06  1.308E+06
  17   1.308E+06  9.796E+05  6.489E+05  3.153E+05 -1.610E+04 -2.923E+05 -1.492E+05  4.841E+04  2.469E+05  4.404E+05  6.295E+05
       8.153E+05  9.989E+05  1.182E+06  1.365E+06  1.551E+06  1.742E+06  1.938E+06  2.142E+06  2.356E+06  2.583E+06  2.827E+06
       3.091E+06  3.375E+06  3.606E+06  3.246E+06  2.831E+06  2.433E+06  2.050E+06  1.677E+06  1.308E+06
  18   1.309E+06  9.973E+05  6.777E+05  3.331E+05 -9.523E+04 -8.308E+05 -2.185E+05  8.613E+04  3.061E+05  4.996E+05  6.833E+05
       8.630E+05  1.041E+06  1.220E+06  1.400E+06  1.584E+06  1.775E+06  1.973E+06  2.181E+06  2.403E+06  2.643E+06  2.910E+06
       3.230E+06  3.691E+06  4.628E+06  3.558E+06  2.961E+06  2.502E+06  2.089E+06  1.696E+06  1.309E+06
  19   1.311E+06  1.023E+06  7.317E+05  4.345E+05  1.329E+05 -1.253E+05  2.000E+04  2.084E+05  3.919E+05  5.686E+05  7.413E+05
       9.121E+05  1.083E+06  1.255E+06  1.431E+06  1.612E+06  1.800E+06  1.998E+06  2.207E+06  2.432E+06  2.675E+06  2.940E+06
       3.228E+06  3.531E+06  3.770E+06  3.396E+06  2.954E+06  2.524E+06  2.110E+06  1.707E+06  1.311E+06
  20   1.313E+06  1.051E+06  7.917E+05  5.405E+05  3.177E+05  1.766E+05  2.153E+05  3.357E+05  4.845E+05  6.417E+05  8.010E+05
       9.613E+05  1.123E+06  1.288E+06  1.457E+06  1.632E+06  1.815E+06  2.010E+06  2.219E+06  2.444E+06  2.687E+06  2.946E+06
       3.210E+06  3.436E+06  3.524E+06  3.301E+06  2.936E+06  2.529E+06  2.118E+06  1.713E+06  1.313E+06
  21   1.315E+06  1.078E+06  8.434E+05  6.179E+05  4.209E+05  2.987E+05  3.291E+05  4.345E+05  5.687E+05  7.126E+05  8.599E+05
       1.009E+06  1.161E+06  1.316E+06  1.476E+06  1.643E+06  1.820E+06  2.009E+06  2.213E+06  2.437E+06  2.682E+06  2.949E+06
       3.228E+06  3.480E+06  3.591E+06  3.347E+06  2.959E+06  2.538E+06  2.121E+06  1.715E+06  1.315E+06
  22   1.318E+06  1.103E+06  8.860E+05  6.669E+05  4.491E+05  2.683E+05  3.678E+05  5.046E+05  6.431E+05  7.802E+05  9.168E+05
       1.054E+06  1.194E+06  1.338E+06  1.488E+06  1.645E+06  1.813E+06  1.993E+06  2.189E+06  2.408E+06  2.654E+06  2.939E+06
       3.275E+06  3.665E+06  4.012E+06  3.537E+06  3.016E+06  2.544E+06  2.114E+06  1.710E+06  1.318E+06
  23   1.321E+06  1.129E+06  9.308E+05  7.146E+05  4.403E+05 -4.250E+04  3.692E+05  5.729E+05  7.190E+05  8.482E+05  9.727E+05
       1.097E+06  1.224E+06  1.356E+06  1.493E+06  1.637E+06  1.792E+06  1.960E+06  2.144E+06  2.350E+06  2.589E+06  2.879E+06
       3.267E+06  3.893E+06  5.255E+06  3.773E+06  3.023E+06  2.507E+06  2.080E+06  1.693E+06  1.321E+06
  24   1.325E+06  1.161E+06  9.936E+05  8.205E+05  6.400E+05  4.802E+05  5.788E+05  6.986E+05  8.120E+05  9.207E+05  1.029E+06
       1.138E+06  1.250E+06  1.367E+06  1.490E+06  1.620E+06  1.759E+06  1.910E+06  2.076E+06  2.261E+06  2.472E+06  2.720E+06
       3.021E+06  3.385E+06  3.727E+06  3.275E+06  2.798E+06  2.380E+06  2.007E+06  1.660E+06  1.325E+06
  25   1.329E+06  1.195E+06  1.062E+06  9.338E+05  8.188E+05  7.446E+05  7.671E+05  8.309E+05  9.095E+05  9.943E+05  1.083E+06
       1.175E+06  1.271E+06  1.372E+06  1.479E+06  1.592E+06  1.714E+06  1.845E+06  1.988E+06  2.145E+06  2.318E+06  2.509E+06
       2.712E+06  2.901E+06  2.992E+06  2.803E+06  2.515E+06  2.208E+06  1.908E+06  1.616E+06  1.329E+06
  26   1.333E+06  1.228E+06  1.127E+06  1.034E+06  9.570E+05  9.121E+05  9.141E+05  9.483E+05  1.001E+06  1.064E+06  1.134E+06
       1.209E+06  1.288E+06  1.372E+06  1.462E+06  1.557E+06  1.659E+06  1.769E+06  1.887E+06  2.013E+06  2.148E+06  2.285E+06
       2.416E+06  2.514E+06  2.536E+06  2.431E+06  2.249E+06  2.030E+06  1.800E+06  1.567E+06  1.333E+06
  27   1.337E+06  1.259E+06  1.183E+06  1.116E+06  1.064E+06  1.033E+06  1.029E+06  1.047E+06  1.082E+06  1.127E+06  1.179E+06
       1.237E+06  1.300E+06  1.367E+06  1.439E+06  1.515E+06  1.597E+06  1.684E+06  1.777E+06  1.874E+06  1.973E+06  2.069E+06
       2.152E+06  2.205E+06  2.205E+06  2.138E+06  2.018E+06  1.865E+06  1.695E+06  1.518E+06  1.337E+06
  28   1.342E+06  1.285E+06  1.232E+06  1.185E+06  1.148E+06  1.126E+06  1.121E+06  1.131E+06  1.152E+06  1.183E+06  1.219E+06
       1.261E+06  1.307E+06  1.357E+06  1.411E+06  1.468E+06  1.529E+06  1.594E+06  1.662E+06  1.732E+06  1.802E+06  1.866E+06
       1.918E+06  1.947E+06  1.943E+06  1.898E+06  1.820E+06  1.716E+06  1.598E+06  1.472E+06  1.342E+06
  29   1.346E+06  1.309E+06  1.274E+06  1.243E+06  1.219E+06  1.203E+06  1.198E+06  1.202E+06  1.214E+06  1.232E+06  1.255E+06
       1.281E+06  1.311E+06  1.343E+06  1.379E+06  1.417E+06  1.458E+06  1.501E+06  1.546E+06  1.591E+06  1.636E+06  1.676E+06
       1.707E+06  1.723E+06  1.719E+06  1.693E+06  1.646E+06  1.583E+06  1.509E+06  1.429E+06  1.346E+06
  30   1.351E+06  1.331E+06  1.311E+06  1.294E+06  1.280E+06  1.271E+06  1.266E+06  1.266E+06  1.269E+06  1.276E+06  1.286E+06
       1.298E+06  1.312E+06  1.327E+06  1.344E+06  1.363E+06  1.384E+06  1.405E+06  1.428E+06  1.452E+06  1.474E+06  1.495E+06
       1.511E+06  1.520E+06  1.519E+06  1.508E+06  1.488E+06  1.460E+06  1.426E+06  1.389E+06  1.351E+06
  31   1.356E+06  1.351E+06  1.346E+06  1.342E+06  1.337E+06  1.333E+06  1.329E+06  1.325E+06  1.321E+06  1.318E+06  1.315E+06
       1.313E+06  1.311E+06  1.309E+06  1.308E+06  1.308E+06  1.308E+06  1.309E+06  1.311E+06  1.313E+06  1.315E+06  1.318E+06
       1.321E+06  1.325E+06  1.329E+06  1.333E+06  1.337E+06  1.342E+06  1.346E+06  1.351E+06  1.356E+06
1
  VOLUMETRIC BUDGET FOR ENTIRE MODEL AT END OF TIME STEP    1, STRESS PERIOD   2
  ------------------------------------------------------------------------------

     CUMULATIVE VOLUMES      L**3       RATES FOR THIS TIME STEP      L**3/T
     ------------------                 ------------------------

           IN:                                      IN:
           ---                                      ---
             STORAGE =           0.0000               STORAGE =           0.0000
       CONSTANT HEAD =  3215582464.0000         CONSTANT HEAD =      942560.1250
               WELLS =  4415040000.0000                 WELLS =     1296000.0000

            TOTAL IN =  7630622720.0000              TOTAL IN =     2238560.0000

          OUT:                                     OUT:
          ----                                     ----
             STORAGE =           0.0000               STORAGE =           0.0000
       CONSTANT HEAD =  3215582464.0000         CONSTANT HEAD =      942560.1250
               WELLS =  4415040000.0000                 WELLS =     1296000.0000

           TOTAL OUT =  7630622720.0000             TOTAL OUT =     2238560.0000

            IN - OUT =           0.0000              IN - OUT =           0.0000

 PERCENT DISCREPANCY =           0.00     PERCENT DISCREPANCY =           0.00






         TIME SUMMARY AT END OF TIME STEP    1 IN STRESS PERIOD    2
                    SECONDS     MINUTES      HOURS       DAYS        YEARS
                    -----------------------------------------------------------
   TIME STEP LENGTH 2.36520E+08 3.94200E+06  65700.      2737.5      7.4949    
 STRESS PERIOD TIME 2.36520E+08 3.94200E+06  65700.      2737.5      7.4949    
         TOTAL TIME 3.15360E+08 5.25600E+06  87600.      3650.0      9.9932    
1

 Run end date and time (yyyy/mm/dd hh:mm:ss): 2021/06/06 21:35:54
 Elapsed run time:  0.042 Seconds

